[Format]      =  4.0
[Frequency]   =  0
[Precision]   =  1e-008
[MinAngle]    =  30
[DoSmartMesh] =  1
[Depth]       =  1
[LengthUnits] =  millimeters
[ProblemType] =  planar
[Coordinates] =  cartesian
[ACSolver]    =  0
[PrevType]    =  0
[PrevSoln]    =  ""
[Comment]     =  "Add comments here."
[PointProps]   = 0
[BdryProps]   = 0
[BlockProps]  = 3
  <BeginBlock>
    <BlockName> = "N42"
    <Mu_x> = 1.05
    <Mu_y> = 1.05
    <H_c> = 994529
    <H_cAngle> = 0
    <J_re> = 0
    <J_im> = 0
    <Sigma> = 0.66700000000000004
    <d_lam> = 0
    <Phi_h> = 0
    <Phi_hx> = 0
    <Phi_hy> = 0
    <LamType> = 0
    <LamFill> = 1
    <NStrands> = 0
    <WireD> = 0
    <BHPoints> = 0
  <EndBlock>
  <BeginBlock>
    <BlockName> = "Air"
    <Mu_x> = 1
    <Mu_y> = 1
    <H_c> = 0
    <H_cAngle> = 0
    <J_re> = 0
    <J_im> = 0
    <Sigma> = 0
    <d_lam> = 0
    <Phi_h> = 0
    <Phi_hx> = 0
    <Phi_hy> = 0
    <LamType> = 0
    <LamFill> = 1
    <NStrands> = 0
    <WireD> = 0
    <BHPoints> = 0
  <EndBlock>
  <BeginBlock>
    <BlockName> = "US Steel Type 2-S 0.024 inch thickness"
    <Mu_x> = 7400
    <Mu_y> = 7400
    <H_c> = 0
    <H_cAngle> = 0
    <J_re> = 0
    <J_im> = 0
    <Sigma> = 6.25
    <d_lam> = 0.60960000000000003
    <Phi_h> = 0
    <Phi_hx> = 0
    <Phi_hy> = 0
    <LamType> = 0
    <LamFill> = 0.97999999999999998
    <NStrands> = 0
    <WireD> = 0
    <BHPoints> = 66
      0	0
      0.0046779999999999999	9.1307220000000004
      0.0064009999999999996	10.474786
      0.008123	12.016997999999999
      0.0098449999999999996	13.786006
      0.014524	15.816824
      0.019202	18.147649000000001
      0.023879999999999998	20.822248999999999
      0.031514	23.893940000000001
      0.048016000000000003	27.429568
      0.067473000000000005	31.492000000000001
      0.10170999999999999	36.179115000000003
      0.15959000000000001	41.607095999999999
      0.26477000000000001	47.948627000000002
      0.39655000000000001	55.320686000000002
      0.53718999999999995	63.850599000000003
      0.67193000000000003	73.677623999999994
      0.79779999999999995	84.980812
      0.90297000000000005	97.936029000000005
      1.0052000000000001	112.84885300000001
      1.0955999999999999	129.96597299999999
      1.1800999999999999	149.637531
      1.2557	172.22162599999999
      1.3165	198.08431300000001
      1.3654999999999999	227.718974
      1.3997999999999999	261.61103100000003
      1.4252	300.436893
      1.4446000000000001	344.928674
      1.4611000000000001	395.961724
      1.4717	454.42731400000002
      1.4852000000000001	521.59868100000006
      1.4987999999999999	598.69336299999998
      1.5094000000000001	687.10396600000001
      1.52	788.557321
      1.5276000000000001	904.87575200000003
      1.5382	1038.486375
      1.5488	1191.832218
      1.5593999999999999	1367.8576479999999
      1.5729	1569.9844969999999
      1.5834999999999999	1801.7937549999999
      1.5941000000000001	2067.9009150000002
      1.6047	2373.239783
      1.6182000000000001	2724.0174019999999
      1.6288	3126.281665
      1.6424000000000001	3588.30863
      1.6589	4119.2497100000001
      1.6754	4728.7337829999997
      1.7083999999999999	6231.5548699999999
      1.7307999999999999	7155.3700669999998
      1.7532000000000001	8216.3768749999999
      1.7756000000000001	9433.9126250000008
      1.8009999999999999	10834.476624999999
      1.8292999999999999	12443.533675000001
      1.8575999999999999	14292.119000000001
      1.8889	16417.634024999999
      1.9232	18861.459050000001
      1.9574	21668.953249999999
      1.9916	24894.229325
      2.0287999999999999	28603.336599999999
      2.0659999999999998	32864.711725000001
      2.0973000000000002	37751.565999999999
      2.1255999999999999	43359.392424999998
      2.1480000000000001	49787.662875000002
      2.1675	57161.314025
      2.181	65610.852975000002
      2.1945999999999999	75308.167125000007
  <EndBlock>
[CircuitProps]  = 0
[NumPoints] = 386
171.24443263629999	178.88962350169999	0	0
172.2522288168	179.45667166460001	0	0
172.28842034620001	176.07713533969999	0	0
147.5385245203	166.8900434926	0	0
146.49453681040001	169.70253165470001	0	0
145.36083816690001	169.474662951	0	0
145.48462284280001	166.47721781320001	0	0
119.1071056303	165.38791266550001	0	0
118.9833209544	168.38535780320001	0	0
117.83469417009999	168.51897393510001	0	0
117.0261589054	165.62998263599999	0	0
91.603035474099997	172.74509296510001	0	0
92.411570738799995	175.6340842642	0	0
91.360451406199999	176.1161059536	0	0
89.698741266100001	173.61836309040001	0	0
67.718604070699996	188.24141232349999	0	0
69.380314210799995	190.73915518659999	0	0
68.529593213799998	191.52239879219999	0	0
66.177367964599995	189.66040083920001	0	0
49.7917859784	210.35998303240001	0	0
52.144011227699998	212.22198098539999	0	0
51.576963064799997	213.2297771659	0	0
48.764474902800004	212.18578945600001	0	0
39.577383055699997	236.93568528189999	0	0
42.3898712178	237.97967299179999	0	0
42.162002514100003	239.11337163530001	0	0
39.164557376300003	238.98958695939999	0	0
38.0752522286	265.3671041719	0	0
41.072697366299998	265.49088884780002	0	0
41.206313498199997	266.63951563209997	0	0
38.317322199099998	267.4480508968	0	0
45.432432528299998	292.87117432809998	0	0
48.321423827300002	292.06263906340001	0	0
48.803445516700002	293.11375839599998	0	0
46.305702653600001	294.77546853609999	0	0
60.928751886599997	316.7556057315	0	0
63.426494749699998	315.09389559139998	0	0
64.209738355300004	315.94461658839998	0	0
62.347740402299998	318.29684183760003	0	0
83.047322595500006	334.68242382369999	0	0
84.909320548500006	332.3301985745	0	0
85.917116729	332.8972467374	0	0
84.873129019100006	335.70973489940002	0	0
109.623024845	344.89682674649998	0	0
110.6670125549	342.08433858439997	0	0
111.80071119839999	342.31220728810001	0	0
111.6769265225	345.30965242590003	0	0
138.05444373500001	346.3989575736	0	0
138.1782284109	343.40151243579999	0	0
139.32685519520001	343.26789630399998	0	0
140.13539045990001	346.15688760299997	0	0
165.55851389119999	339.04177727389998	0	0
164.7499786265	336.15278597489998	0	0
165.80109795909999	335.67076428550001	0	0
167.4628080992	338.16850714859999	0	0
189.44294529460001	323.54545791560002	0	0
187.7812351545	321.0477150525	0	0
188.63195615149999	320.26447144690002	0	0
190.98418140070001	322.12646939989997	0	0
207.36976338689999	301.42688720659999	0	0
205.01753813760001	299.56488925370002	0	0
205.58458630050001	298.55709307320001	0	0
208.3970744625	299.60108078309997	0	0
217.58416630959999	274.85118495720002	0	0
214.77167814750001	273.8071972473	0	0
214.99954685119999	272.6734986038	0	0
217.99699198900001	272.79728327970003	0	0
219.08629713670001	246.41976606719999	0	0
216.0888519989	246.29598139129999	0	0
215.95523586709999	245.14735460700001	0	0
218.84422716610001	244.33881934230001	0	0
211.72911683699999	218.915695911	0	0
208.840125538	219.72423117560001	0	0
208.3581038486	218.6731118431	0	0
210.8558467117	217.01140170299999	0	0
196.23279747870001	195.03126450760001	0	0
193.73505461560001	196.6929746477	0	0
192.95181101	195.8422536507	0	0
194.81380896300001	193.49002840150001	0	0
174.1142267697	177.1044464153	0	0
92.384309717099995	178.55776812490001	0	0
89.504012140900002	174.22834716220001	0	0
71.791347209799994	192.7383850077	0	0
92.272838687399997	179.11236185870001	0	0
68.356455899899998	188.29749301519999	0	0
71.236753476100006	192.62691397789999	0	0
70.257855437700002	193.5281678929	0	0
66.180665005700007	190.30070477449999	0	0
55.054835862799997	213.37831136360001	0	0
70.323219077199994	194.09006431989999	0	0
50.415749003800002	210.2162118846	0	0
54.492939435799997	213.4436750031	0	0
53.840454853600001	214.6033145415	0	0
48.965475372699999	212.79373584429999	0	0
45.5155556928	238.17991425310001	0	0
54.076254913900001	215.1175113244	0	0
40.126379429000004	236.60613561619999	0	0
45.001358909799997	238.4157143134	0	0
44.739157520799999	239.72022587730001	0	0
39.543585948699999	239.50566577250001	0	0
44.107277906900002	264.71543998229998	0	0
45.122312249099998	240.1363898525	0	0
38.495542359600002	264.88403460569998	0	0
43.691113931700002	265.09859471060003	0	0
43.844861834699998	266.42028361920001	0	0
38.837276916500002	267.82174474459998	0	0
50.9678545469	290.38740640909998	0	0
44.3378653766	266.6976777571	0	0
45.682875490699999	292.28187107629998	0	0
50.690460409000003	290.8804099509	0	0
51.245107687999997	292.0899000851	0	0
46.915686725299999	294.97019766130001	0	0
65.4257245708	312.68286259230001	0	0
51.799701421800002	292.2013711148	0	0
60.984832578300001	316.11775390230002	0	0
65.314253540999999	313.23745632610002	0	0
66.215507456099999	314.21635436449998	0	0
62.988044337600002	318.29354479649999	0	0
86.065650926700002	329.41937393939997	0	0
66.777403883000005	314.15099072499999	0	0
82.903551447699996	334.05846079840001	0	0
86.131014566199994	329.98127036630001	0	0
87.290654104599994	330.63375494859997	0	0
85.481075407399999	335.50873442940002	0	0
110.86725381620001	338.95865410940002	0	0
87.804850887499995	330.39795488829998	0	0
109.2934751793	344.3478303732	0	0
111.1030538765	339.47285089230002	0	0
112.40756544040001	339.73505228139999	0	0
112.19300533560001	344.93062385349998	0	0
137.40277954539999	340.36693189530001	0	0
112.8237294156	339.3518975531	0	0
137.57137416879999	345.9786674426	0	0
137.78593427370001	340.78309587040002	0	0
139.10762318229999	340.62934796740001	0	0
140.50908430780001	345.63693288569999	0	0
163.07474597219999	333.50635525529998	0	0
139.38501732020001	340.13634442559999	0	0
164.96921063939999	338.79133431150001	0	0
163.56774951400001	333.78374939320003	0	0
164.77723964820001	333.22910211409999	0	0
167.65753722439999	337.55852307689997	0	0
185.37020215539999	319.04848523139998	0	0
164.88871067790001	332.67450838040003	0	0
188.80509346540001	323.48937722390002	0	0
185.9247958892	319.15995626109998	0	0
186.90369392759999	318.25870234609999	0	0
190.9808843596	321.48616546459999	0	0
202.10671350250001	298.40855887549998	0	0
186.8383302881	317.69680591920002	0	0
206.74580036149999	301.5706583544	0	0
202.66860992950001	298.34319523599999	0	0
203.32109451170001	297.18355569760001	0	0
208.19607399259999	298.99313439479999	0	0
211.6459936725	273.606955986	0	0
203.08529445139999	296.66935891470001	0	0
217.03516993630001	275.18073462289999	0	0
212.1601904554	273.37115592570001	0	0
212.4223918445	272.06664436170001	0	0
217.61796341659999	272.2812044666	0	0
213.0542714584	247.0714302568	0	0
212.03923711620001	271.65048038660001	0	0
218.66600700570001	246.9028356334	0	0
213.4704354335	246.68827552849999	0	0
213.31668753049999	245.3665866199	0	0
218.3242724488	243.96512549440001	0	0
206.19369481839999	221.39946383	0	0
212.8236839887	245.0891924819	0	0
211.47867387459999	219.5049991628	0	0
206.47108895630001	220.90646028820001	0	0
205.9164416772	219.69697015400001	0	0
210.24586264000001	216.81667257780001	0	0
191.73582479449999	199.10400764670001	0	0
205.36184794350001	219.58549912429999	0	0
196.176716787	195.66911633679999	0	0
191.84729582419999	198.549413913	0	0
190.94604190920001	197.57051587460001	0	0
194.1735050277	193.49332544250001	0	0
171.09589843859999	182.36749629970001	0	0
190.3841454823	197.6358795141	0	0
174.25799791750001	177.72840944070001	0	0
171.0305347991	181.80559987269999	0	0
169.8708952607	181.15311529050001	0	0
171.68047395790001	176.2781358096	0	0
146.29429554910001	172.8282161297	0	0
169.35669847779999	181.3889153508	0	0
147.868074186	167.43903986590001	0	0
146.05849548879999	172.31401934670001	0	0
144.7539839248	172.0518179577	0	0
144.96854402970001	166.8562463856	0	0
119.7587698199	171.4199383438	0	0
144.33781994969999	172.43497268600001	0	0
119.5901751965	165.80820279650001	0	0
119.3756150916	171.00377436860001	0	0
118.053926183	171.15752227159999	0	0
116.6524650575	166.14993735339999	0	0
94.086803393099999	178.2805149838	0	0
117.776532045	171.6505258135	0	0
92.192338725900001	172.9955359276	0	0
93.593799851300005	178.00312084590001	0	0
115.7078404742	320.62586566919998	0	0
112.3665099669	333.09588088740003	0	0
116.8217334628	337.55110438330001	0	0
97.9355684712	332.49057172570002	0	0
104.02151694619999	330.8598467466	0	0
107.3628474535	318.3898315285	0	0
99.392489208599997	315.08840104640001	0	0
92.937534346199996	326.26871082859998	0	0
96.087853091900001	331.72522295620001	0	0
79.154980797099995	321.94902457860002	0	0
85.455618288500006	321.94902457860002	0	0
91.910573150800005	310.76871479639999	0	0
85.066271362099997	305.51689732	0	0
75.937586651199993	314.64558203090002	0	0
77.568311630300002	320.73153050590003	0	0
63.742679296299997	306.90589817189999	0	0
69.828627771300006	308.53662315100001	0	0
78.957312482099994	299.4079384401	0	0
73.705495005800003	292.56363665129999	0	0
62.525185223599998	299.01859151370002	0	0
62.525185223599998	305.3192290051	0	0
52.748986846000001	288.38635671029999	0	0
58.205498973600001	291.53667545600001	0	0
69.385808755799999	285.08172059359998	0	0
66.084378273699997	277.11136234859998	0	0
53.6143630555	280.45269285590001	0	0
51.9836380765	286.53864133090002	0	0
46.923105418900001	267.65247633929999	0	0
51.378328914800001	272.10769983530002	0	0
63.848344132999998	268.76636932790001	0	0
62.722287676800001	260.21312136950002	0	0
49.812377951999999	260.21312136950002	0	0
46.662059206400002	265.66963349709999	0	0
46.662059206400002	246.11723674199999	0	0
49.812377951999999	251.57374886950001	0	0
62.722287676800001	251.57374886950001	0	0
63.848344132999998	243.02050091109999	0	0
51.378328914800001	239.67917040379999	0	0
46.923105418900001	244.1343938997	0	0
51.9836380765	225.2482289081	0	0
53.6143630555	231.33417738310001	0	0
66.084378273699997	234.67550789040001	0	0
69.385808755799999	226.7051496455	0	0
58.205498973600001	220.2501947831	0	0
52.748986846000001	223.40051352879999	0	0
62.525185223599998	206.46764123400001	0	0
62.525185223599998	212.76827872539999	0	0
73.705495005800003	219.22323358770001	0	0
78.957312482099994	212.37893179899999	0	0
69.828627771300006	203.2502470881	0	0
63.742679296299997	204.88097206719999	0	0
77.568311630300002	191.05533973319999	0	0
75.937586651199993	197.1412882082	0	0
85.066271362099997	206.269972919	0	0
91.910573150800005	201.0181554426	0	0
85.455618288500006	189.83784566049999	0	0
79.154980797099995	189.83784566049999	0	0
96.087853091900001	180.0616472829	0	0
92.937534346199996	185.5181594105	0	0
99.392489208599997	196.69846919259999	0	0
107.3628474535	193.39703871059999	0	0
104.02151694619999	180.9270234924	0	0
97.9355684712	179.29629851339999	0	0
116.8217334628	174.2357658558	0	0
112.3665099669	178.69098935170001	0	0
115.7078404742	191.1610045699	0	0
124.2610884326	190.03494811370001	0	0
124.2610884326	177.12503838890001	0	0
118.8045763051	173.97471964330001	0	0
138.3569730602	173.97471964330001	0	0
132.9004609326	177.12503838890001	0	0
132.9004609326	190.03494811370001	0	0
141.45370889110001	191.1610045699	0	0
144.79503939840001	178.69098935170001	0	0
140.33981590240001	174.2357658558	0	0
159.225980894	179.29629851339999	0	0
153.14003241910001	180.9270234924	0	0
149.79870191169999	193.39703871059999	0	0
157.76906015669999	196.6984691927	0	0
164.22401501909999	185.5181594105	0	0
161.0736962734	180.0616472829	0	0
178.00656856820001	189.83784566049999	0	0
171.7059310768	189.83784566049999	0	0
165.25097621450001	201.01815544269999	0	0
172.09527800320001	206.269972919	0	0
181.2239627141	197.1412882082	0	0
179.593237735	191.05533973319999	0	0
193.41887006900001	204.88097206719999	0	0
187.332921594	203.2502470881	0	0
178.20423688310001	212.37893179899999	0	0
183.4560543595	219.22323358770001	0	0
194.6363641417	212.76827872539999	0	0
194.6363641417	206.46764123400001	0	0
204.4125625193	223.40051352879999	0	0
198.95605039169999	220.2501947831	0	0
187.77574060949999	226.7051496455	0	0
191.07717109160001	234.67550789040001	0	0
203.54718630970001	231.33417738310001	0	0
205.1779112888	225.2482289081	0	0
210.2384439464	244.1343938997	0	0
205.78322045050001	239.67917040379999	0	0
193.31320523229999	243.02050091109999	0	0
194.43926168850001	251.57374886950001	0	0
207.3491714132	251.57374886950001	0	0
210.49949015889999	246.11723674199999	0	0
210.49949015889999	265.66963349709999	0	0
207.3491714132	260.21312136950002	0	0
194.43926168850001	260.21312136950002	0	0
193.31320523229999	268.76636932790001	0	0
205.78322045050001	272.10769983530002	0	0
210.2384439464	267.65247633929999	0	0
205.1779112888	286.53864133090002	0	0
203.54718630970001	280.45269285590001	0	0
191.07717109160001	277.11136234859998	0	0
187.77574060949999	285.08172059359998	0	0
198.95605039169999	291.53667545600001	0	0
204.4125625193	288.38635671029999	0	0
194.6363641417	305.3192290051	0	0
194.6363641417	299.01859151370002	0	0
183.4560543595	292.56363665129999	0	0
178.20423688310001	299.4079384401	0	0
187.332921594	308.53662315100001	0	0
193.41887006900001	306.90589817189999	0	0
179.593237735	320.73153050590003	0	0
181.2239627141	314.64558203090002	0	0
172.09527800320001	305.51689732	0	0
165.25097621450001	310.76871479639999	0	0
171.7059310768	321.94902457860002	0	0
178.00656856820001	321.94902457860002	0	0
161.0736962734	331.72522295620001	0	0
164.22401501909999	326.26871082859998	0	0
157.76906015669999	315.08840104640001	0	0
149.79870191169999	318.3898315285	0	0
153.14003241910001	330.8598467466	0	0
159.225980894	332.49057172570002	0	0
140.33981590240001	337.55110438330001	0	0
144.79503939840001	333.09588088740003	0	0
141.45370889110001	320.62586566919998	0	0
132.9004609326	321.75192212539997	0	0
132.9004609326	334.66183185009999	0	0
138.3569730602	337.81215059580001	0	0
118.8045763051	337.81215059580001	0	0
124.2610884326	334.66183185009999	0	0
124.2610884326	321.75192212539997	0	0
228.58077468260069	255.8934351195	0	0
28.580774682599312	255.8934351195	0	0
68.467926929584152	187.74289928145174	0	0
88.949418407084153	174.11687613245172	0	0
50.35038536436879	209.65431545767061	0	0
65.618768578668806	190.36606841397062	0	0
39.890579368695036	236.09193883328138	0	0
48.451278589795038	213.02953590458139	0	0
38.112387631295604	264.46787063055001	0	0
39.127421973495586	239.88882050075006	0	0
45.18987194883141	292.00447693835645	0	0
38.559882778531438	268.31474828645645	0	0
60.430238844551752	316.00628287261583	0	0
46.804215695551711	295.52479139501582	0	0
82.341655020770617	334.12382443783122	0	0
63.053407977070599	318.85544122353122	0	0
108.7792783963814	344.58363043350499	0	0
85.716875467681376	336.02293121240501	0	0
137.15521019365005	346.36182217090442	0	0
112.57616006385005	345.34678782870435	0	0
164.69181650145643	339.28433785336858	0	0
141.00208784955646	345.91432702366865	0	0
188.69362243571584	324.04397095764824	0	0
168.21213095811584	337.6699941065483	0	0
206.8111640009312	302.13255478142941	0	0
191.54278078663123	321.42080182512939	0	0
217.27096999660498	275.69493140581864	0	0
208.71027077550502	298.75733433451865	0	0
219.0491617340044	247.31899960854994	0	0
218.03412739180442	271.89804973834998	0	0
211.97167741646857	219.78239330064352	0	0
218.60166658676857	243.47212195264353	0	0
196.73131052074828	195.78058736648416	0	0
210.35733366964826	216.26207884398414	0	0
174.81989434452939	177.66304580116878	0	0
194.1081413882294	192.93142901556877	0	0
148.38227096891862	167.20323980559502	0	0
171.44467389761863	175.76393902669503	0	0
120.00633917164994	165.42504806819559	0	0
144.58538930144994	166.4400824103956	0	0
92.469732863743545	172.50253238573143	0	0
116.15946151574354	165.87254321543145	0	0
[NumSegments] = 276
0	1	-1	0	0	0
2	0	-1	0	0	0
3	380	-1	0	0	0
4	3	-1	0	0	0
5	4	-1	0	0	0
6	5	-1	0	0	0
7	382	-1	0	0	0
8	7	-1	0	0	0
9	8	-1	0	0	0
10	9	-1	0	0	0
11	384	-1	0	0	0
12	11	-1	0	0	0
13	12	-1	0	0	0
14	13	-1	0	0	0
15	346	-1	0	0	0
16	15	-1	0	0	0
17	16	-1	0	0	0
18	17	-1	0	0	0
19	348	-1	0	0	0
20	19	-1	0	0	0
21	20	-1	0	0	0
22	21	-1	0	0	0
23	350	-1	0	0	0
24	23	-1	0	0	0
25	24	-1	0	0	0
26	25	-1	0	0	0
27	352	-1	0	0	0
28	27	-1	0	0	0
29	28	-1	0	0	0
30	29	-1	0	0	0
31	354	-1	0	0	0
32	31	-1	0	0	0
33	32	-1	0	0	0
34	33	-1	0	0	0
35	356	-1	0	0	0
36	35	-1	0	0	0
37	36	-1	0	0	0
38	37	-1	0	0	0
39	358	-1	0	0	0
40	39	-1	0	0	0
41	40	-1	0	0	0
42	41	-1	0	0	0
43	360	-1	0	0	0
44	43	-1	0	0	0
45	44	-1	0	0	0
46	45	-1	0	0	0
47	362	-1	0	0	0
48	47	-1	0	0	0
49	48	-1	0	0	0
50	49	-1	0	0	0
51	364	-1	0	0	0
52	51	-1	0	0	0
53	52	-1	0	0	0
54	53	-1	0	0	0
55	366	-1	0	0	0
56	55	-1	0	0	0
57	56	-1	0	0	0
58	57	-1	0	0	0
59	368	-1	0	0	0
60	59	-1	0	0	0
61	60	-1	0	0	0
62	61	-1	0	0	0
63	370	-1	0	0	0
64	63	-1	0	0	0
65	64	-1	0	0	0
66	65	-1	0	0	0
67	372	-1	0	0	0
68	67	-1	0	0	0
69	68	-1	0	0	0
70	69	-1	0	0	0
71	374	-1	0	0	0
72	71	-1	0	0	0
73	72	-1	0	0	0
74	73	-1	0	0	0
75	376	-1	0	0	0
76	75	-1	0	0	0
77	76	-1	0	0	0
78	77	-1	0	0	0
79	378	-1	0	0	0
1	79	-1	0	0	0
80	81	-1	0	0	0
82	83	-1	0	0	0
84	85	-1	0	0	0
86	87	-1	0	0	0
88	89	-1	0	0	0
90	91	-1	0	0	0
92	93	-1	0	0	0
94	95	-1	0	0	0
96	97	-1	0	0	0
98	99	-1	0	0	0
100	101	-1	0	0	0
102	103	-1	0	0	0
104	105	-1	0	0	0
106	107	-1	0	0	0
108	109	-1	0	0	0
110	111	-1	0	0	0
112	113	-1	0	0	0
114	115	-1	0	0	0
116	117	-1	0	0	0
118	119	-1	0	0	0
120	121	-1	0	0	0
122	123	-1	0	0	0
124	125	-1	0	0	0
126	127	-1	0	0	0
128	129	-1	0	0	0
130	131	-1	0	0	0
132	133	-1	0	0	0
134	135	-1	0	0	0
136	137	-1	0	0	0
138	139	-1	0	0	0
140	141	-1	0	0	0
142	143	-1	0	0	0
144	145	-1	0	0	0
146	147	-1	0	0	0
148	149	-1	0	0	0
150	151	-1	0	0	0
152	153	-1	0	0	0
154	155	-1	0	0	0
156	157	-1	0	0	0
158	159	-1	0	0	0
160	161	-1	0	0	0
162	163	-1	0	0	0
164	165	-1	0	0	0
166	167	-1	0	0	0
168	169	-1	0	0	0
170	171	-1	0	0	0
172	173	-1	0	0	0
174	175	-1	0	0	0
176	177	-1	0	0	0
178	179	-1	0	0	0
180	181	-1	0	0	0
182	183	-1	0	0	0
184	185	-1	0	0	0
186	187	-1	0	0	0
188	189	-1	0	0	0
190	191	-1	0	0	0
192	193	-1	0	0	0
194	195	-1	0	0	0
196	197	-1	0	0	0
198	199	-1	0	0	0
200	201	-1	0	0	0
202	201	-1	0	0	0
203	204	-1	0	0	0
205	204	-1	0	0	0
206	207	-1	0	0	0
208	207	-1	0	0	0
209	210	-1	0	0	0
211	210	-1	0	0	0
212	213	-1	0	0	0
214	213	-1	0	0	0
215	216	-1	0	0	0
217	216	-1	0	0	0
218	219	-1	0	0	0
220	219	-1	0	0	0
221	222	-1	0	0	0
223	222	-1	0	0	0
224	225	-1	0	0	0
226	225	-1	0	0	0
227	228	-1	0	0	0
229	228	-1	0	0	0
230	231	-1	0	0	0
232	231	-1	0	0	0
233	234	-1	0	0	0
235	234	-1	0	0	0
236	237	-1	0	0	0
238	237	-1	0	0	0
239	240	-1	0	0	0
241	240	-1	0	0	0
242	243	-1	0	0	0
244	243	-1	0	0	0
245	246	-1	0	0	0
247	246	-1	0	0	0
248	249	-1	0	0	0
250	249	-1	0	0	0
251	252	-1	0	0	0
253	252	-1	0	0	0
254	255	-1	0	0	0
256	255	-1	0	0	0
257	258	-1	0	0	0
259	258	-1	0	0	0
260	261	-1	0	0	0
262	261	-1	0	0	0
263	264	-1	0	0	0
265	264	-1	0	0	0
266	267	-1	0	0	0
268	267	-1	0	0	0
269	270	-1	0	0	0
271	270	-1	0	0	0
272	273	-1	0	0	0
274	273	-1	0	0	0
275	276	-1	0	0	0
277	276	-1	0	0	0
278	279	-1	0	0	0
280	279	-1	0	0	0
281	282	-1	0	0	0
283	282	-1	0	0	0
284	285	-1	0	0	0
286	285	-1	0	0	0
287	288	-1	0	0	0
289	288	-1	0	0	0
290	291	-1	0	0	0
292	291	-1	0	0	0
293	294	-1	0	0	0
295	294	-1	0	0	0
296	297	-1	0	0	0
298	297	-1	0	0	0
299	300	-1	0	0	0
301	300	-1	0	0	0
302	303	-1	0	0	0
304	303	-1	0	0	0
305	306	-1	0	0	0
307	306	-1	0	0	0
308	309	-1	0	0	0
310	309	-1	0	0	0
311	312	-1	0	0	0
313	312	-1	0	0	0
314	315	-1	0	0	0
316	315	-1	0	0	0
317	318	-1	0	0	0
319	318	-1	0	0	0
320	321	-1	0	0	0
322	321	-1	0	0	0
323	324	-1	0	0	0
325	324	-1	0	0	0
326	327	-1	0	0	0
328	327	-1	0	0	0
329	330	-1	0	0	0
331	330	-1	0	0	0
332	333	-1	0	0	0
334	333	-1	0	0	0
335	336	-1	0	0	0
337	336	-1	0	0	0
338	339	-1	0	0	0
340	339	-1	0	0	0
341	342	-1	0	0	0
343	342	-1	0	0	0
346	347	-1	0	0	0
347	14	-1	0	0	0
348	349	-1	0	0	0
349	18	-1	0	0	0
350	351	-1	0	0	0
351	22	-1	0	0	0
352	353	-1	0	0	0
353	26	-1	0	0	0
354	355	-1	0	0	0
355	30	-1	0	0	0
356	357	-1	0	0	0
357	34	-1	0	0	0
358	359	-1	0	0	0
359	38	-1	0	0	0
360	361	-1	0	0	0
361	42	-1	0	0	0
362	363	-1	0	0	0
363	46	-1	0	0	0
364	365	-1	0	0	0
365	50	-1	0	0	0
366	367	-1	0	0	0
367	54	-1	0	0	0
368	369	-1	0	0	0
369	58	-1	0	0	0
370	371	-1	0	0	0
371	62	-1	0	0	0
372	373	-1	0	0	0
373	66	-1	0	0	0
374	375	-1	0	0	0
375	70	-1	0	0	0
376	377	-1	0	0	0
377	74	-1	0	0	0
378	379	-1	0	0	0
379	78	-1	0	0	0
380	381	-1	0	0	0
381	2	-1	0	0	0
382	383	-1	0	0	0
383	6	-1	0	0	0
384	385	-1	0	0	0
385	10	-1	0	0	0
[NumArcSegments] = 130
344	345	180	5	0	0	0	5
345	344	180	5	0	0	0	5
80	83	90.000000000000057	5	0	0	0	5
82	85	90	5	0	0	0	5
84	346	90	5	0	0	0	5
347	81	89.999999999999972	5	0	0	0	5
86	89	90.000000000000057	5	0	0	0	5
88	91	90	5	0	0	0	5
90	348	90	5	0	0	0	5
349	87	89.999999999999972	5	0	0	0	5
92	95	90.000000000000057	5	0	0	0	5
94	97	90	5	0	0	0	5
96	350	90	5	0	0	0	5
351	93	89.999999999999972	5	0	0	0	5
98	101	90	5	0	0	0	5
100	103	90	5	0	0	0	5
102	352	90	5	0	0	0	5
353	99	89.999999999999972	5	0	0	0	5
104	107	89.999999999999972	5	0	0	0	5
106	109	90.000000000000057	5	0	0	0	5
108	354	90	5	0	0	0	5
355	105	90	5	0	0	0	5
110	113	90.000000000100016	5	0	0	0	5
112	115	90.000000000000057	5	0	0	0	5
114	356	90	5	0	0	0	5
357	111	90	5	0	0	0	5
116	119	89.999999999999972	5	0	0	0	5
118	121	90.000000000000057	5	0	0	0	5
120	358	90	5	0	0	0	5
359	117	90	5	0	0	0	5
122	125	89.999999999899984	5	0	0	0	5
124	127	90.000000000100044	5	0	0	0	5
126	360	90	5	0	0	0	5
361	123	90	5	0	0	0	5
128	131	89.999999999999972	5	0	0	0	5
130	133	90	5	0	0	0	5
132	362	90	5	0	0	0	5
363	129	90	5	0	0	0	5
134	137	90	5	0	0	0	5
136	139	89.999999999999972	5	0	0	0	5
138	364	90.000000000000057	5	0	0	0	5
365	135	90	5	0	0	0	5
140	143	90	5	0	0	0	5
142	145	89.999999999999972	5	0	0	0	5
144	366	90.000000000000057	5	0	0	0	5
367	141	90.000000000099988	5	0	0	0	5
146	149	90	5	0	0	0	5
148	151	89.999999999999972	5	0	0	0	5
150	368	90.000000000000057	5	0	0	0	5
369	147	90	5	0	0	0	5
152	155	90	5	0	0	0	5
154	157	89.999999999999972	5	0	0	0	5
156	370	90.000000000000057	5	0	0	0	5
371	153	90	5	0	0	0	5
158	161	90	5	0	0	0	5
160	163	89.999999999999972	5	0	0	0	5
162	372	90	5	0	0	0	5
373	159	90	5	0	0	0	5
164	167	90	5	0	0	0	5
166	169	90	5	0	0	0	5
168	374	89.999999999999972	5	0	0	0	5
375	165	90.000000000000057	5	0	0	0	5
170	173	90	5	0	0	0	5
172	175	90	5	0	0	0	5
174	376	89.999999999999972	5	0	0	0	5
377	171	90.000000000000057	5	0	0	0	5
176	179	90	5	0	0	0	5
178	181	90	5	0	0	0	5
180	378	89.999999999999972	5	0	0	0	5
379	177	90.000000000000057	5	0	0	0	5
182	185	90	5	0	0	0	5
184	187	90	5	0	0	0	5
186	380	89.999999999999972	5	0	0	0	5
381	183	90.000000000000057	5	0	0	0	5
188	191	90	5	0	0	0	5
190	193	90	5	0	0	0	5
192	382	89.999999999999972	5	0	0	0	5
383	189	90	5	0	0	0	5
194	197	90.000000000000057	5	0	0	0	5
196	199	90	5	0	0	0	5
198	384	90	5	0	0	0	5
385	195	89.999999999999972	5	0	0	0	5
343	200	7.494641397200013	5	0	0	0	5
202	203	13.611010232599995	5	0	0	0	5
205	206	7.494641397200013	5	0	0	0	5
208	209	13.611010232599995	5	0	0	0	5
211	212	7.4946413971999988	5	0	0	0	5
214	215	13.611010232599995	5	0	0	0	5
217	218	7.4946413971999846	5	0	0	0	5
220	221	13.611010232599995	5	0	0	0	5
223	224	7.4946413971999846	5	0	0	0	5
226	227	13.611010232599995	5	0	0	0	5
229	230	7.4946413971999846	5	0	0	0	5
232	233	13.611010232599995	5	0	0	0	5
235	236	7.4946413971999846	5	0	0	0	5
238	239	13.611010232599995	5	0	0	0	5
241	242	7.4946413971999846	5	0	0	0	5
244	245	13.611010232599995	5	0	0	0	5
247	248	7.4946413971999846	5	0	0	0	5
250	251	13.611010232599995	5	0	0	0	5
253	254	7.4946413971999846	5	0	0	0	5
256	257	13.611010232599995	5	0	0	0	5
259	260	7.4946413971999846	5	0	0	0	5
262	263	13.611010232600023	5	0	0	0	5
265	266	7.4946413971999846	5	0	0	0	5
268	269	13.611010232600051	5	0	0	0	5
271	272	7.4946413971999846	5	0	0	0	5
274	275	13.611010232600051	5	0	0	0	5
277	278	7.4946413971999846	5	0	0	0	5
280	281	13.611010232600051	5	0	0	0	5
283	284	7.4946413971999846	5	0	0	0	5
286	287	13.611010232600051	5	0	0	0	5
289	290	7.4946413971999846	5	0	0	0	5
292	293	13.611010232600051	5	0	0	0	5
295	296	7.4946413971999846	5	0	0	0	5
298	299	13.611010232600051	5	0	0	0	5
301	302	7.4946413971999846	5	0	0	0	5
304	305	13.611010232600051	5	0	0	0	5
307	308	7.4946413971999988	5	0	0	0	5
310	311	13.611010232600002	5	0	0	0	5
313	314	7.4946413971999988	5	0	0	0	5
316	317	13.611010232599998	5	0	0	0	5
319	320	7.4946413971999988	5	0	0	0	5
322	323	13.611010232599995	5	0	0	0	5
325	326	7.4946413971999988	5	0	0	0	5
328	329	13.611010232599995	5	0	0	0	5
331	332	7.4946413972000059	5	0	0	0	5
334	335	13.611010232599995	5	0	0	0	5
337	338	7.494641397200013	5	0	0	0	5
340	341	13.611010232599995	5	0	0	0	5
[NumHoles] = 0
[NumBlockLabels] = 24
83.400000000000006	288.80000000000001	3	-1	0	0	0	1	0
59.5	283.30000000000001	2	-1	0	0	0	1	0
45	280.5	1	-1	0	160	0	1	0
55.700000000000003	304.5	1	-1	0	330	0	1	0
74.200000000000003	323	2	-1	0	0	0	1	0
96.299999999999997	336.30000000000001	2	-1	0	0	0	1	0
123.5	342.69999999999999	2	-1	0	0	0	1	0
151	340.10000000000002	2	-1	0	0	0	1	0
177.40000000000001	327.80000000000001	2	-1	0	0	0	1	0
198.09999999999999	307.30000000000001	2	-1	0	0	0	1	0
211.19999999999999	288.30000000000001	2	-1	0	0	0	1	0
215.69999999999999	262.19999999999999	2	-1	0	0	0	1	0
214.59999999999999	238.09999999999999	2	-1	0	0	0	1	0
204.80000000000001	212	2	-1	0	0	0	1	0
185.59999999999999	188.59999999999999	2	-1	0	0	0	1	0
161	173.30000000000001	2	-1	0	0	0	1	0
133	169.40000000000001	2	-1	0	0	0	1	0
111.2	168.30000000000001	2	-1	0	0	0	1	0
80	183.30000000000001	2	-1	0	0	0	1	0
62.399999999999999	197.90000000000001	2	-1	0	0	0	1	0
48	221.40000000000001	1	-1	0	200	0	1	0
42.100000000000001	252.80000000000001	1	-1	0	10	0	1	0
33.100000000000001	245.69999999999999	3	-1	0	0	0	1	0
243.80000000000001	282.69999999999999	2	-1	0	0	0	1	0
