[Format]      =  4.0
[Frequency]   =  0
[Precision]   =  1e-008
[MinAngle]    =  30
[DoSmartMesh] =  1
[Depth]       =  1
[LengthUnits] =  millimeters
[ProblemType] =  planar
[Coordinates] =  cartesian
[ACSolver]    =  0
[PrevType]    =  0
[PrevSoln]    =  ""
[Comment]     =  "Add comments here."
[PointProps]   = 0
[BdryProps]   = 1
  <BeginBdry>
    <BdryName> = "A=0"
    <BdryType> = 0
    <A_0> = 0
    <A_1> = 0
    <A_2> = 0
    <Phi> = 0
    <c0> = 0
    <c0i> = 0
    <c1> = 0
    <c1i> = 0
    <Mu_ssd> = 0
    <Sigma_ssd> = 0
    <innerangle> = 0
    <outerangle> = 0
  <EndBdry>
[BlockProps]  = 10
  <BeginBlock>
    <BlockName> = "N42"
    <Mu_x> = 1.05
    <Mu_y> = 1.05
    <H_c> = 994529
    <H_cAngle> = 0
    <J_re> = 0
    <J_im> = 0
    <Sigma> = 0.66700000000000004
    <d_lam> = 0
    <Phi_h> = 0
    <Phi_hx> = 0
    <Phi_hy> = 0
    <LamType> = 0
    <LamFill> = 1
    <NStrands> = 0
    <WireD> = 0
    <BHPoints> = 0
  <EndBlock>
  <BeginBlock>
    <BlockName> = "US Steel Type 2-S 0.024 inch thickness"
    <Mu_x> = 7400
    <Mu_y> = 7400
    <H_c> = 0
    <H_cAngle> = 0
    <J_re> = 0
    <J_im> = 0
    <Sigma> = 6.25
    <d_lam> = 0.60960000000000003
    <Phi_h> = 0
    <Phi_hx> = 0
    <Phi_hy> = 0
    <LamType> = 0
    <LamFill> = 0.97999999999999998
    <NStrands> = 0
    <WireD> = 0
    <BHPoints> = 66
      0	0
      0.0046779999999999999	9.1307220000000004
      0.0064009999999999996	10.474786
      0.008123	12.016997999999999
      0.0098449999999999996	13.786006
      0.014524	15.816824
      0.019202	18.147649000000001
      0.023879999999999998	20.822248999999999
      0.031514	23.893940000000001
      0.048016000000000003	27.429568
      0.067473000000000005	31.492000000000001
      0.10170999999999999	36.179115000000003
      0.15959000000000001	41.607095999999999
      0.26477000000000001	47.948627000000002
      0.39655000000000001	55.320686000000002
      0.53718999999999995	63.850599000000003
      0.67193000000000003	73.677623999999994
      0.79779999999999995	84.980812
      0.90297000000000005	97.936029000000005
      1.0052000000000001	112.84885300000001
      1.0955999999999999	129.96597299999999
      1.1800999999999999	149.637531
      1.2557	172.22162599999999
      1.3165	198.08431300000001
      1.3654999999999999	227.718974
      1.3997999999999999	261.61103100000003
      1.4252	300.436893
      1.4446000000000001	344.928674
      1.4611000000000001	395.961724
      1.4717	454.42731400000002
      1.4852000000000001	521.59868100000006
      1.4987999999999999	598.69336299999998
      1.5094000000000001	687.10396600000001
      1.52	788.557321
      1.5276000000000001	904.87575200000003
      1.5382	1038.486375
      1.5488	1191.832218
      1.5593999999999999	1367.8576479999999
      1.5729	1569.9844969999999
      1.5834999999999999	1801.7937549999999
      1.5941000000000001	2067.9009150000002
      1.6047	2373.239783
      1.6182000000000001	2724.0174019999999
      1.6288	3126.281665
      1.6424000000000001	3588.30863
      1.6589	4119.2497100000001
      1.6754	4728.7337829999997
      1.7083999999999999	6231.5548699999999
      1.7307999999999999	7155.3700669999998
      1.7532000000000001	8216.3768749999999
      1.7756000000000001	9433.9126250000008
      1.8009999999999999	10834.476624999999
      1.8292999999999999	12443.533675000001
      1.8575999999999999	14292.119000000001
      1.8889	16417.634024999999
      1.9232	18861.459050000001
      1.9574	21668.953249999999
      1.9916	24894.229325
      2.0287999999999999	28603.336599999999
      2.0659999999999998	32864.711725000001
      2.0973000000000002	37751.565999999999
      2.1255999999999999	43359.392424999998
      2.1480000000000001	49787.662875000002
      2.1675	57161.314025
      2.181	65610.852975000002
      2.1945999999999999	75308.167125000007
  <EndBlock>
  <BeginBlock>
    <BlockName> = "Air"
    <Mu_x> = 1
    <Mu_y> = 1
    <H_c> = 0
    <H_cAngle> = 0
    <J_re> = 0
    <J_im> = 0
    <Sigma> = 0
    <d_lam> = 0
    <Phi_h> = 0
    <Phi_hx> = 0
    <Phi_hy> = 0
    <LamType> = 0
    <LamFill> = 1
    <NStrands> = 0
    <WireD> = 0
    <BHPoints> = 0
  <EndBlock>
  <BeginBlock>
    <BlockName> = "u1"
    <Mu_x> = 2.6498996896116669
    <Mu_y> = 2.6498996896116669
    <H_c> = 0
    <H_cAngle> = 0
    <J_re> = 0
    <J_im> = 0
    <Sigma> = 0
    <d_lam> = 0
    <Phi_h> = 0
    <Phi_hx> = 0
    <Phi_hy> = 0
    <LamType> = 0
    <LamFill> = 1
    <NStrands> = 0
    <WireD> = 0
    <BHPoints> = 0
  <EndBlock>
  <BeginBlock>
    <BlockName> = "u2"
    <Mu_x> = 0.12953316809300527
    <Mu_y> = 0.12953316809300527
    <H_c> = 0
    <H_cAngle> = 0
    <J_re> = 0
    <J_im> = 0
    <Sigma> = 0
    <d_lam> = 0
    <Phi_h> = 0
    <Phi_hx> = 0
    <Phi_hy> = 0
    <LamType> = 0
    <LamFill> = 1
    <NStrands> = 0
    <WireD> = 0
    <BHPoints> = 0
  <EndBlock>
  <BeginBlock>
    <BlockName> = "u3"
    <Mu_x> = 14.398967120915913
    <Mu_y> = 14.398967120915913
    <H_c> = 0
    <H_cAngle> = 0
    <J_re> = 0
    <J_im> = 0
    <Sigma> = 0
    <d_lam> = 0
    <Phi_h> = 0
    <Phi_hx> = 0
    <Phi_hy> = 0
    <LamType> = 0
    <LamFill> = 1
    <NStrands> = 0
    <WireD> = 0
    <BHPoints> = 0
  <EndBlock>
  <BeginBlock>
    <BlockName> = "u4"
    <Mu_x> = 0.042882574356338271
    <Mu_y> = 0.042882574356338271
    <H_c> = 0
    <H_cAngle> = 0
    <J_re> = 0
    <J_im> = 0
    <Sigma> = 0
    <d_lam> = 0
    <Phi_h> = 0
    <Phi_hx> = 0
    <Phi_hy> = 0
    <LamType> = 0
    <LamFill> = 1
    <NStrands> = 0
    <WireD> = 0
    <BHPoints> = 0
  <EndBlock>
  <BeginBlock>
    <BlockName> = "u5"
    <Mu_x> = 37.197476986533054
    <Mu_y> = 37.197476986533054
    <H_c> = 0
    <H_cAngle> = 0
    <J_re> = 0
    <J_im> = 0
    <Sigma> = 0
    <d_lam> = 0
    <Phi_h> = 0
    <Phi_hx> = 0
    <Phi_hy> = 0
    <LamType> = 0
    <LamFill> = 1
    <NStrands> = 0
    <WireD> = 0
    <BHPoints> = 0
  <EndBlock>
  <BeginBlock>
    <BlockName> = "u6"
    <Mu_x> = 0.015664246064106369
    <Mu_y> = 0.015664246064106369
    <H_c> = 0
    <H_cAngle> = 0
    <J_re> = 0
    <J_im> = 0
    <Sigma> = 0
    <d_lam> = 0
    <Phi_h> = 0
    <Phi_hx> = 0
    <Phi_hy> = 0
    <LamType> = 0
    <LamFill> = 1
    <NStrands> = 0
    <WireD> = 0
    <BHPoints> = 0
  <EndBlock>
  <BeginBlock>
    <BlockName> = "u7"
    <Mu_x> = 142.03015659052124
    <Mu_y> = 142.03015659052124
    <H_c> = 0
    <H_cAngle> = 0
    <J_re> = 0
    <J_im> = 0
    <Sigma> = 0
    <d_lam> = 0
    <Phi_h> = 0
    <Phi_hx> = 0
    <Phi_hy> = 0
    <LamType> = 0
    <LamFill> = 1
    <NStrands> = 0
    <WireD> = 0
    <BHPoints> = 0
  <EndBlock>
[CircuitProps]  = 0
[NumPoints] = 445
115.7078404742	320.62586566919998	0	0
112.3665099669	333.09588088740003	0	0
116.8217334628	337.55110438330001	0	0
97.9355684712	332.49057172570002	0	0
104.02151694619999	330.8598467466	0	0
107.3628474535	318.3898315285	0	0
99.392489208599997	315.08840104640001	0	0
92.937534346199996	326.26871082859998	0	0
96.087853091900001	331.72522295620001	0	0
79.154980797099995	321.94902457860002	0	0
85.455618288500006	321.94902457860002	0	0
91.910573150800005	310.76871479639999	0	0
85.066271362099997	305.51689732	0	0
75.937586651199993	314.64558203090002	0	0
77.568311630300002	320.73153050590003	0	0
63.742679296299997	306.90589817189999	0	0
69.828627771300006	308.53662315100001	0	0
78.957312482099994	299.4079384401	0	0
73.705495005800003	292.56363665129999	0	0
62.525185223599998	299.01859151370002	0	0
62.525185223599998	305.3192290051	0	0
52.748986846000001	288.38635671029999	0	0
58.205498973600001	291.53667545600001	0	0
69.385808755799999	285.08172059359998	0	0
66.084378273699997	277.11136234859998	0	0
53.6143630555	280.45269285590001	0	0
51.9836380765	286.53864133090002	0	0
46.923105418900001	267.65247633929999	0	0
51.378328914800001	272.10769983530002	0	0
63.848344132999998	268.76636932790001	0	0
62.722287676800001	260.21312136950002	0	0
49.812377951999999	260.21312136950002	0	0
46.662059206400002	265.66963349709999	0	0
46.662059206400002	246.11723674199999	0	0
49.812377951999999	251.57374886950001	0	0
62.722287676800001	251.57374886950001	0	0
63.848344132999998	243.02050091109999	0	0
51.378328914800001	239.67917040379999	0	0
46.923105418900001	244.1343938997	0	0
51.9836380765	225.2482289081	0	0
53.6143630555	231.33417738310001	0	0
66.084378273699997	234.67550789040001	0	0
69.385808755799999	226.7051496455	0	0
58.205498973600001	220.2501947831	0	0
52.748986846000001	223.40051352879999	0	0
62.525185223599998	206.46764123400001	0	0
62.525185223599998	212.76827872539999	0	0
73.705495005800003	219.22323358770001	0	0
78.957312482099994	212.37893179899999	0	0
69.828627771300006	203.2502470881	0	0
63.742679296299997	204.88097206719999	0	0
77.568311630300002	191.05533973319999	0	0
75.937586651199993	197.1412882082	0	0
85.066271362099997	206.269972919	0	0
91.910573150800005	201.0181554426	0	0
85.455618288500006	189.83784566049999	0	0
79.154980797099995	189.83784566049999	0	0
96.087853091900001	180.0616472829	0	0
92.937534346199996	185.5181594105	0	0
99.392489208599997	196.69846919259999	0	0
107.3628474535	193.39703871059999	0	0
104.02151694619999	180.9270234924	0	0
97.9355684712	179.29629851339999	0	0
116.8217334628	174.2357658558	0	0
112.3665099669	178.69098935170001	0	0
115.7078404742	191.1610045699	0	0
124.2610884326	190.03494811370001	0	0
124.2610884326	177.12503838890001	0	0
118.8045763051	173.97471964330001	0	0
138.3569730602	173.97471964330001	0	0
132.9004609326	177.12503838890001	0	0
132.9004609326	190.03494811370001	0	0
141.45370889110001	191.1610045699	0	0
144.79503939840001	178.69098935170001	0	0
140.33981590240001	174.2357658558	0	0
159.225980894	179.29629851339999	0	0
153.14003241910001	180.9270234924	0	0
149.79870191169999	193.39703871059999	0	0
157.76906015669999	196.6984691927	0	0
164.22401501909999	185.5181594105	0	0
161.0736962734	180.0616472829	0	0
178.00656856820001	189.83784566049999	0	0
171.7059310768	189.83784566049999	0	0
165.25097621450001	201.01815544269999	0	0
172.09527800320001	206.269972919	0	0
181.2239627141	197.1412882082	0	0
179.593237735	191.05533973319999	0	0
193.41887006900001	204.88097206719999	0	0
187.332921594	203.2502470881	0	0
178.20423688310001	212.37893179899999	0	0
183.4560543595	219.22323358770001	0	0
194.6363641417	212.76827872539999	0	0
194.6363641417	206.46764123400001	0	0
204.4125625193	223.40051352879999	0	0
198.95605039169999	220.2501947831	0	0
187.77574060949999	226.7051496455	0	0
191.07717109160001	234.67550789040001	0	0
203.54718630970001	231.33417738310001	0	0
205.1779112888	225.2482289081	0	0
210.2384439464	244.1343938997	0	0
205.78322045050001	239.67917040379999	0	0
193.31320523229999	243.02050091109999	0	0
194.43926168850001	251.57374886950001	0	0
207.3491714132	251.57374886950001	0	0
210.49949015889999	246.11723674199999	0	0
210.49949015889999	265.66963349709999	0	0
207.3491714132	260.21312136950002	0	0
194.43926168850001	260.21312136950002	0	0
193.31320523229999	268.76636932790001	0	0
205.78322045050001	272.10769983530002	0	0
210.2384439464	267.65247633929999	0	0
205.1779112888	286.53864133090002	0	0
203.54718630970001	280.45269285590001	0	0
191.07717109160001	277.11136234859998	0	0
187.77574060949999	285.08172059359998	0	0
198.95605039169999	291.53667545600001	0	0
204.4125625193	288.38635671029999	0	0
194.6363641417	305.3192290051	0	0
194.6363641417	299.01859151370002	0	0
183.4560543595	292.56363665129999	0	0
178.20423688310001	299.4079384401	0	0
187.332921594	308.53662315100001	0	0
193.41887006900001	306.90589817189999	0	0
179.593237735	320.73153050590003	0	0
181.2239627141	314.64558203090002	0	0
172.09527800320001	305.51689732	0	0
165.25097621450001	310.76871479639999	0	0
171.7059310768	321.94902457860002	0	0
178.00656856820001	321.94902457860002	0	0
161.0736962734	331.72522295620001	0	0
164.22401501909999	326.26871082859998	0	0
157.76906015669999	315.08840104640001	0	0
149.79870191169999	318.3898315285	0	0
153.14003241910001	330.8598467466	0	0
159.225980894	332.49057172570002	0	0
140.33981590240001	337.55110438330001	0	0
144.79503939840001	333.09588088740003	0	0
141.45370889110001	320.62586566919998	0	0
132.9004609326	321.75192212539997	0	0
132.9004609326	334.66183185009999	0	0
138.3569730602	337.81215059580001	0	0
118.8045763051	337.81215059580001	0	0
124.2610884326	334.66183185009999	0	0
124.2610884326	321.75192212539997	0	0
52.200410529099997	217.72238015280001	0	0
47.254916644399998	216.11549178199999	0	0
44.855408276299997	241.62239985790001	0	0
52.457226337900003	218.2264095571	0	0
39.405884987299999	240.2723272959	0	0
44.351378871999998	241.87921566669999	0	0
38.8709538835	240.62424875630001	0	0
47.029002534999996	215.51635672610001	0	0
44.143226959499998	243.19343511950001	0	0
38.943226959500002	243.19343511950001	0	0
44.543226959499997	268.19343511950001	0	0
44.543226959499997	243.59343511949999	0	0
38.943226959500002	268.59343511949999	0	0
44.143226959499998	268.59343511949999	0	0
38.543226959499997	269.09343511949999	0	0
38.543226959499997	242.69343511950001	0	0
44.351378871999998	269.90765457240002	0	0
39.405884987299999	271.51454294310003	0	0
52.457226337900003	293.56046068199998	0	0
44.855408276299997	270.16447038119998	0	0
47.254916644399998	295.671378457	0	0
52.200410529099997	294.0644900863	0	0
47.029002534999996	296.27051351289998	0	0
38.8709538835	271.16262148269999	0	0
52.804490907100003	295.2500645824	0	0
48.597602536399997	298.30654789430002	0	0
67.8227290122	315.24037534079997	0	0
53.363211805799999	295.33855727920002	0	0
63.527347944600002	318.85557955140001	0	0
67.734236315399997	315.79909623949999	0	0
63.497633772999997	319.49520214950002	0	0
47.980103112499997	298.13715349799998	0	0
68.675113562700005	316.73997348680001	0	0
65.618630250699994	320.94686185760003	0	0
89.135652523000005	331.11099799639999	0	0
69.233834461300006	316.65148078999999	0	0
86.167661907899998	335.87660726579998	0	0
89.224145219799993	331.66971889500002	0	0
86.337056304100003	336.4941066897	0	0
64.979007652600004	320.97657602919998	0	0
90.409719715899996	332.2737992731	0	0
88.802831345100003	337.2192931578	0	0
114.309739421	339.61880152589998	0	0
90.913749120199995	332.01698346429998	0	0
112.959666859	345.0683248149	0	0
114.5665552298	340.1228309302	0	0
113.3115883194	345.60325591859998	0	0
88.203696289199996	337.44520726709999	0	0
115.88077468260001	340.3309828427	0	0
115.88077468260001	345.53098284269998	0	0
140.88077468259999	339.93098284270002	0	0
116.2807746826	339.93098284270002	0	0
141.2807746826	345.53098284269998	0	0
141.2807746826	340.3309828427	0	0
141.7807746826	345.93098284270002	0	0
115.38077468260001	345.93098284270002	0	0
142.5949941355	340.1228309302	0	0
144.20188250620001	345.0683248149	0	0
166.2478002451	332.01698346429998	0	0
142.85180994429999	339.61880152589998	0	0
168.35871802010001	337.2192931578	0	0
166.75182964940001	332.2737992731	0	0
168.95785307599999	337.44520726709999	0	0
143.8499610458	345.60325591859998	0	0
167.93740414550001	331.66971889500002	0	0
170.99388745740001	335.87660726579998	0	0
187.92771490390001	316.65148078999999	0	0
168.0258968423	331.11099799639999	0	0
191.54291911449999	320.94686185760003	0	0
188.4864358026	316.73997348680001	0	0
192.1825417126	320.97657602919998	0	0
170.82449306109999	336.4941066897	0	0
189.42731304989999	315.79909623949999	0	0
193.63420142070001	318.85557955140001	0	0
203.7983375595	295.33855727920002	0	0
189.3388203531	315.24037534079997	0	0
208.56394682889999	298.30654789430002	0	0
204.3570584581	295.2500645824	0	0
209.18144625279999	298.13715349799998	0	0
193.66391559229999	319.49520214950002	0	0
204.96113883620001	294.0644900863	0	0
209.90663272090001	295.671378457	0	0
212.30614108899999	270.16447038119998	0	0
204.70432302739999	293.56046068199998	0	0
217.75566437800001	271.51454294310003	0	0
212.81017049330001	269.90765457240002	0	0
218.2905954817	271.16262148269999	0	0
210.1325468302	296.27051351289998	0	0
213.01832240580001	268.59343511949999	0	0
218.2183224058	268.59343511949999	0	0
212.6183224058	243.59343511949999	0	0
212.6183224058	268.19343511950001	0	0
218.2183224058	243.19343511950001	0	0
213.01832240580001	243.19343511950001	0	0
218.6183224058	242.69343511950001	0	0
218.6183224058	269.09343511949999	0	0
212.81017049330001	241.87921566669999	0	0
217.75566437800001	240.2723272959	0	0
204.70432302739999	218.2264095571	0	0
212.30614108899999	241.62239985790001	0	0
209.90663272090001	216.11549178199999	0	0
204.96113883620001	217.72238015280001	0	0
210.1325468302	215.51635672610001	0	0
218.2905954817	240.62424875630001	0	0
204.3570584581	216.53680565670001	0	0
208.56394682889999	213.48032234479999	0	0
189.3388203531	196.5464948982	0	0
203.7983375595	216.44831295989999	0	0
193.63420142070001	192.93129068760001	0	0
189.42731304989999	195.98777399959999	0	0
193.66391559229999	192.29166808950001	0	0
209.18144625279999	213.64971674099999	0	0
188.4864358026	195.0468967523	0	0
191.54291911449999	190.84000838150001	0	0
168.0258968423	180.6758722427	0	0
187.927714904	195.13538944909999	0	0
170.99388745740001	175.91026297330001	0	0
167.93740414550001	180.11715134400001	0	0
170.82449306109999	175.29276354940001	0	0
192.1825417126	190.81029420990001	0	0
166.75182964940001	179.51307096599999	0	0
168.35871802010001	174.56757708129999	0	0
142.85180994429999	172.16806871310001	0	0
166.2478002451	179.7698867748	0	0
144.20188250620001	166.7185454241	0	0
142.5949941355	171.66403930889999	0	0
143.8499610458	166.18361432040001	0	0
168.95785307599999	174.34166297190001	0	0
141.2807746826	171.45588739639999	0	0
141.2807746826	166.2558873964	0	0
116.2807746826	171.85588739639999	0	0
140.88077468259999	171.85588739639999	0	0
115.88077468260001	166.2558873964	0	0
115.88077468260001	171.45588739639999	0	0
115.38077468260001	165.85588739639999	0	0
141.7807746826	165.85588739639999	0	0
114.5665552298	171.66403930889999	0	0
112.959666859	166.7185454241	0	0
90.913749120199995	179.7698867748	0	0
114.309739421	172.16806871310001	0	0
88.802831345100003	174.56757708129999	0	0
90.409719715899996	179.51307096599999	0	0
88.203696289199996	174.34166297190001	0	0
113.3115883194	166.18361432040001	0	0
89.224145219799993	180.11715134400001	0	0
86.167661907899998	175.91026297330001	0	0
69.233834461300006	195.13538944909999	0	0
89.135652523000005	180.6758722427	0	0
65.618630250699994	190.84000838150001	0	0
68.675113562700005	195.0468967523	0	0
64.979007652600004	190.81029420990001	0	0
86.337056304100003	175.29276354940001	0	0
67.734236315399997	195.98777399959999	0	0
63.527347944600002	192.93129068760001	0	0
53.363211805799999	216.44831295980001	0	0
67.8227290122	196.5464948982	0	0
48.597602536399997	213.48032234479999	0	0
52.804490907100003	216.53680565670001	0	0
47.980103112499997	213.64971674099999	0	0
63.497633772999997	192.29166808950001	0	0
169.06113730429999	177.71981453250001	0	0
168.03080209289999	177.19483252079999	0	0
142.9229100627	169.0367838693	0	0
141.7807746826	168.85588739639999	0	0
115.38077468260001	168.85588739639999	0	0
114.23863930260001	169.0367838693	0	0
89.130747272400001	177.19483252079999	0	0
88.100412061	177.71981453250001	0	0
66.742363409500001	193.23734519300001	0	0
65.924684756100007	194.05502384639999	0	0
50.407154095599999	215.4130724979	0	0
49.882172083900002	216.4434077093	0	0
41.724123432399999	241.5512997395	0	0
41.543226959499997	242.69343511950001	0	0
41.543226959499997	269.09343511949999	0	0
41.724123432399999	270.23557049959999	0	0
49.882172083900002	295.34346252979998	0	0
50.407154095599999	296.37379774120001	0	0
65.924684756100007	317.73184639269999	0	0
66.742363409500001	318.54952504599999	0	0
88.100412061	334.0670557066	0	0
89.130747272400001	334.5920377182	0	0
114.23863930260001	342.7500863697	0	0
115.38077468260001	342.93098284270002	0	0
141.7807746826	342.93098284270002	0	0
142.9229100627	342.7500863697	0	0
168.03080209289999	334.5920377182	0	0
169.06113730429999	334.0670557066	0	0
190.4191859558	318.54952504599999	0	0
191.2368646091	317.73184639269999	0	0
206.75439526970001	296.37379774120001	0	0
207.2793772814	295.34346252979998	0	0
215.4374259329	270.23557049959999	0	0
215.6183224058	269.09343511949999	0	0
215.6183224058	242.69343511950001	0	0
215.4374259329	241.5512997395	0	0
207.2793772814	216.4434077093	0	0
206.75439526970001	215.4130724979	0	0
191.2368646091	194.05502384639999	0	0
190.4191859558	193.23734519300001	0	0
185.94140218260003	255.8934351195	0	0
71.220147182599987	255.8934351195	0	0
39.14906917848193	239.76829789165004	0	0
46.75088724008193	216.37230759085003	0	0
38.543226959499968	268.19343511950001	0	0
38.543226959499997	243.59343511949999	0	0
46.750887240081937	295.41456264824996	0	0
39.149069178481959	272.01857234744995	0	0
62.968627045950022	318.76708685461699	0	0
48.509109839550021	298.86526879301698	0	0
85.608941009182999	335.96509996265002	0	0
65.707122947583031	321.50558275624996	0	0
112.45563745475003	345.32514062371803	0	0
89.059647153950024	337.72332256211803	0	0
140.88077468259999	345.93098284270002	0	0
116.2807746826	345.93098284270002	0	0
168.10190221134997	337.72332256211803	0	0
144.70591191054996	345.32514062371803	0	0
191.45442641771697	321.50558275624996	0	0
171.55260835611699	335.96509996265002	0	0
208.65243952575	298.86526879301698	0	0
194.19292231935	318.76708685461705	0	0
218.01248018681807	272.01857234744995	0	0
210.4106621252181	295.41456264824996	0	0
218.6183224058	243.59343511949999	0	0
218.61832240580003	268.19343511950001	0	0
210.41066212521807	216.37230759085003	0	0
218.0124801868181	239.76829789165001	0	0
194.19292231934995	193.01978338448302	0	0
208.65243952575	212.921601446083	0	0
171.55260835611699	175.82177027645	0	0
191.45442641771697	190.28128748285005	0	0
144.70591191054996	166.46172961538193	0	0
168.10190221134997	174.06354767698195	0	0
116.2807746826	165.85588739639999	0	0
140.88077468259999	165.85588739639996	0	0
89.059647153950024	174.06354767698195	0	0
112.45563745475002	166.46172961538193	0	0
65.707122947583017	190.28128748285002	0	0
85.608941009182999	175.82177027645	0	0
48.509109839550021	212.921601446083	0	0
62.968627045949987	193.01978338448299	0	0
228.58077468260069	255.8934351195	0	0
28.580774682599312	255.8934351195	0	0
160.97001294039998	164.21158694869999	0	0
155.77001294039999	164.21158694869999	0	0
187.84327300359999	177.90419686179999	0	0
182.6432730036	177.90419686179999	0	0
209.1700129404	199.23093679850001	0	0
203.97001294040001	199.23093679850001	0	0
222.86262285350003	226.10419686180001	0	0
217.66262285349998	226.10419686180001	0	0
227.58077468260001	255.8934351195	0	0
222.38077468260002	255.8934351195	0	0
222.86262285350003	285.68267337729998	0	0
217.66262285349998	285.68267337729998	0	0
209.1700129404	312.55593344049998	0	0
203.97001294040001	312.55593344049998	0	0
187.84327300360005	333.88267337730002	0	0
182.64327300359994	333.88267337730002	0	0
160.97001294039995	347.57528329040002	0	0
155.77001294040002	347.57528329040002	0	0
131.18077468260003	352.29343511949997	0	0
125.98077468259999	352.29343511949997	0	0
101.39153642490001	347.57528329040002	0	0
96.191536424899994	347.57528329040002	0	0
74.518276361599973	333.88267337730002	0	0
69.318276361600013	333.88267337730002	0	0
53.191536424900036	312.55593344049998	0	0
47.991536424899962	312.55593344049998	0	0
39.498926511800001	285.68267337729998	0	0
34.298926511799998	285.68267337729998	0	0
34.780774682600004	255.8934351195	0	0
29.580774682600001	255.8934351195	0	0
39.498926511800015	226.10419686180001	0	0
34.298926511799984	226.10419686180001	0	0
53.191536424900015	199.23093679850001	0	0
47.991536424899984	199.23093679850001	0	0
74.518276361600016	177.90419686179999	0	0
69.31827636159997	177.90419686179999	0	0
101.39153642490001	164.21158694869999	0	0
96.191536424899994	164.21158694869999	0	0
131.1807746826	159.49343511949999	0	0
125.98077468260001	159.49343511949999	0	0
128.58099999999999	477.15000000000003	0	0
128.58099999999999	43.444000000000017	0	0
128.58099999999999	40.346100000000028	0	0
128.58099999999999	480.24790000000002	0	0
128.58099999999999	37.248200000000047	0	0
128.58099999999999	483.3458	0	0
128.58099999999999	34.150300000000009	0	0
128.58099999999999	486.44370000000004	0	0
128.58099999999999	31.052399999999995	0	0
128.58099999999999	489.54160000000002	0	0
128.58099999999999	27.954500000000014	0	0
128.58099999999999	492.6395	0	0
128.58099999999999	24.856600000000032	0	0
128.58099999999999	495.73739999999998	0	0
128.58099999999999	21.758699999999994	0	0
128.58099999999999	498.83530000000007	0	0
128.5	328.69999999999999	0	0
[NumSegments] = 276
0	1	-1	0	0	0
2	1	-1	0	0	0
3	4	-1	0	0	0
5	4	-1	0	0	0
6	7	-1	0	0	0
8	7	-1	0	0	0
9	10	-1	0	0	0
11	10	-1	0	0	0
12	13	-1	0	0	0
14	13	-1	0	0	0
15	16	-1	0	0	0
17	16	-1	0	0	0
18	19	-1	0	0	0
20	19	-1	0	0	0
21	22	-1	0	0	0
23	22	-1	0	0	0
24	25	-1	0	0	0
26	25	-1	0	0	0
27	28	-1	0	0	0
29	28	-1	0	0	0
30	31	-1	0	0	0
32	31	-1	0	0	0
33	34	-1	0	0	0
35	34	-1	0	0	0
36	37	-1	0	0	0
38	37	-1	0	0	0
39	40	-1	0	0	0
41	40	-1	0	0	0
42	43	-1	0	0	0
44	43	-1	0	0	0
45	46	-1	0	0	0
47	46	-1	0	0	0
48	49	-1	0	0	0
50	49	-1	0	0	0
51	52	-1	0	0	0
53	52	-1	0	0	0
54	55	-1	0	0	0
56	55	-1	0	0	0
57	58	-1	0	0	0
59	58	-1	0	0	0
60	61	-1	0	0	0
62	61	-1	0	0	0
63	64	-1	0	0	0
65	64	-1	0	0	0
66	67	-1	0	0	0
68	67	-1	0	0	0
69	70	-1	0	0	0
71	70	-1	0	0	0
72	73	-1	0	0	0
74	73	-1	0	0	0
75	76	-1	0	0	0
77	76	-1	0	0	0
78	79	-1	0	0	0
80	79	-1	0	0	0
81	82	-1	0	0	0
83	82	-1	0	0	0
84	85	-1	0	0	0
86	85	-1	0	0	0
87	88	-1	0	0	0
89	88	-1	0	0	0
90	91	-1	0	0	0
92	91	-1	0	0	0
93	94	-1	0	0	0
95	94	-1	0	0	0
96	97	-1	0	0	0
98	97	-1	0	0	0
99	100	-1	0	0	0
101	100	-1	0	0	0
102	103	-1	0	0	0
104	103	-1	0	0	0
105	106	-1	0	0	0
107	106	-1	0	0	0
108	109	-1	0	0	0
110	109	-1	0	0	0
111	112	-1	0	0	0
113	112	-1	0	0	0
114	115	-1	0	0	0
116	115	-1	0	0	0
117	118	-1	0	0	0
119	118	-1	0	0	0
120	121	-1	0	0	0
122	121	-1	0	0	0
123	124	-1	0	0	0
125	124	-1	0	0	0
126	127	-1	0	0	0
128	127	-1	0	0	0
129	130	-1	0	0	0
131	130	-1	0	0	0
132	133	-1	0	0	0
134	133	-1	0	0	0
135	136	-1	0	0	0
137	136	-1	0	0	0
138	139	-1	0	0	0
140	139	-1	0	0	0
141	142	-1	0	0	0
143	142	-1	0	0	0
144	145	-1	0	0	0
146	147	-1	0	0	0
148	149	-1	0	0	0
150	346	-1	0	0	0
152	153	-1	0	0	0
154	155	-1	0	0	0
156	157	-1	0	0	0
158	348	-1	0	0	0
160	161	-1	0	0	0
162	163	-1	0	0	0
164	165	-1	0	0	0
166	350	-1	0	0	0
168	169	-1	0	0	0
170	171	-1	0	0	0
172	173	-1	0	0	0
174	352	-1	0	0	0
176	177	-1	0	0	0
178	179	-1	0	0	0
180	181	-1	0	0	0
182	354	-1	0	0	0
184	185	-1	0	0	0
186	187	-1	0	0	0
188	189	-1	0	0	0
190	356	-1	0	0	0
192	193	-1	0	0	0
194	195	-1	0	0	0
196	197	-1	0	0	0
198	358	-1	0	0	0
200	201	-1	0	0	0
202	203	-1	0	0	0
204	205	-1	0	0	0
206	360	-1	0	0	0
208	209	-1	0	0	0
210	211	-1	0	0	0
212	213	-1	0	0	0
214	362	-1	0	0	0
216	217	-1	0	0	0
218	219	-1	0	0	0
220	221	-1	0	0	0
222	364	-1	0	0	0
224	225	-1	0	0	0
226	227	-1	0	0	0
228	229	-1	0	0	0
230	366	-1	0	0	0
232	233	-1	0	0	0
234	235	-1	0	0	0
236	237	-1	0	0	0
238	368	-1	0	0	0
240	241	-1	0	0	0
242	243	-1	0	0	0
244	245	-1	0	0	0
246	370	-1	0	0	0
248	249	-1	0	0	0
250	251	-1	0	0	0
252	253	-1	0	0	0
254	372	-1	0	0	0
256	257	-1	0	0	0
258	259	-1	0	0	0
260	261	-1	0	0	0
262	374	-1	0	0	0
264	265	-1	0	0	0
266	267	-1	0	0	0
268	269	-1	0	0	0
270	376	-1	0	0	0
272	273	-1	0	0	0
274	275	-1	0	0	0
276	277	-1	0	0	0
278	378	-1	0	0	0
280	281	-1	0	0	0
282	283	-1	0	0	0
284	285	-1	0	0	0
286	380	-1	0	0	0
288	289	-1	0	0	0
290	291	-1	0	0	0
292	293	-1	0	0	0
294	382	-1	0	0	0
296	297	-1	0	0	0
298	299	-1	0	0	0
300	301	-1	0	0	0
302	384	-1	0	0	0
304	262	-1	0	0	0
305	304	-1	0	0	0
271	305	-1	0	0	0
306	270	-1	0	0	0
307	306	-1	0	0	0
279	307	-1	0	0	0
308	278	-1	0	0	0
309	308	-1	0	0	0
287	309	-1	0	0	0
310	286	-1	0	0	0
311	310	-1	0	0	0
295	311	-1	0	0	0
312	294	-1	0	0	0
313	312	-1	0	0	0
303	313	-1	0	0	0
314	302	-1	0	0	0
315	314	-1	0	0	0
151	315	-1	0	0	0
316	150	-1	0	0	0
317	316	-1	0	0	0
159	317	-1	0	0	0
318	158	-1	0	0	0
319	318	-1	0	0	0
167	319	-1	0	0	0
320	166	-1	0	0	0
321	320	-1	0	0	0
175	321	-1	0	0	0
322	174	-1	0	0	0
323	322	-1	0	0	0
183	323	-1	0	0	0
324	182	-1	0	0	0
325	324	-1	0	0	0
191	325	-1	0	0	0
326	190	-1	0	0	0
327	326	-1	0	0	0
199	327	-1	0	0	0
328	198	-1	0	0	0
329	328	-1	0	0	0
207	329	-1	0	0	0
330	206	-1	0	0	0
331	330	-1	0	0	0
215	331	-1	0	0	0
332	214	-1	0	0	0
333	332	-1	0	0	0
223	333	-1	0	0	0
334	222	-1	0	0	0
335	334	-1	0	0	0
231	335	-1	0	0	0
336	230	-1	0	0	0
337	336	-1	0	0	0
239	337	-1	0	0	0
338	238	-1	0	0	0
339	338	-1	0	0	0
247	339	-1	0	0	0
340	246	-1	0	0	0
341	340	-1	0	0	0
255	341	-1	0	0	0
342	254	-1	0	0	0
343	342	-1	0	0	0
263	343	-1	0	0	0
346	347	-1	0	0	0
347	151	-1	0	0	0
348	349	-1	0	0	0
349	159	-1	0	0	0
350	351	-1	0	0	0
351	167	-1	0	0	0
352	353	-1	0	0	0
353	175	-1	0	0	0
354	355	-1	0	0	0
355	183	-1	0	0	0
356	357	-1	0	0	0
357	191	-1	0	0	0
358	359	-1	0	0	0
359	199	-1	0	0	0
360	361	-1	0	0	0
361	207	-1	0	0	0
362	363	-1	0	0	0
363	215	-1	0	0	0
364	365	-1	0	0	0
365	223	-1	0	0	0
366	367	-1	0	0	0
367	231	-1	0	0	0
368	369	-1	0	0	0
369	239	-1	0	0	0
370	371	-1	0	0	0
371	247	-1	0	0	0
372	373	-1	0	0	0
373	255	-1	0	0	0
374	375	-1	0	0	0
375	263	-1	0	0	0
376	377	-1	0	0	0
377	271	-1	0	0	0
378	379	-1	0	0	0
379	279	-1	0	0	0
380	381	-1	0	0	0
381	287	-1	0	0	0
382	383	-1	0	0	0
383	295	-1	0	0	0
384	385	-1	0	0	0
385	303	-1	0	0	0
[NumArcSegments] = 188
344	345	180	5	0	0	0	5
345	344	180	5	0	0	0	5
143	0	7.494641397200013	5	0	0	0	5
2	3	13.611010232599995	5	0	0	0	5
5	6	7.494641397200013	5	0	0	0	5
8	9	13.611010232599995	5	0	0	0	5
11	12	7.4946413971999988	5	0	0	0	5
14	15	13.611010232599995	5	0	0	0	5
17	18	7.4946413971999846	5	0	0	0	5
20	21	13.611010232599995	5	0	0	0	5
23	24	7.4946413971999846	5	0	0	0	5
26	27	13.611010232599995	5	0	0	0	5
29	30	7.4946413971999846	5	0	0	0	5
32	33	13.611010232599995	5	0	0	0	5
35	36	7.4946413971999846	5	0	0	0	5
38	39	13.611010232599995	5	0	0	0	5
41	42	7.4946413971999846	5	0	0	0	5
44	45	13.611010232599995	5	0	0	0	5
47	48	7.4946413971999846	5	0	0	0	5
50	51	13.611010232599995	5	0	0	0	5
53	54	7.4946413971999846	5	0	0	0	5
56	57	13.611010232599995	5	0	0	0	5
59	60	7.4946413971999846	5	0	0	0	5
62	63	13.611010232600023	5	0	0	0	5
65	66	7.4946413971999846	5	0	0	0	5
68	69	13.611010232600051	5	0	0	0	5
71	72	7.4946413971999846	5	0	0	0	5
74	75	13.611010232600051	5	0	0	0	5
77	78	7.4946413971999846	5	0	0	0	5